<additional>
<tazs>
    <taz id="102502" edges="-100002300 -100002302 -100002305 -100002306#0 -100002306#1 -100002306#2 -100682917 -100857308#0 -100857308#1 -100857308#3 -100857313 -102620320 -102620323#0 -102620323#1 -102620683 -112950835#0 -112950835#1 -112950835#2 -112950835#3 -112950843 -112950864#0 -112950864#1 -112950864#2 -116908046#0 -116908046#1 -116908046#2 -116908046#3 -129306320#0 -129306320#1 -132211358#0 -132211358#1 -139089927#0 -139089927#1 -147411519#0 -147411519#1 -148591922#1 -148591929#1 -183269826 -184107414#0 -184107414#1 -184107414#2 -186087330#0 -186087330#2 -202517903 -202518057 -202518058#0 -264453946 -305580377#0 -305580377#1 -327593042 -38866054#0 -38866054#1 -38866054#2 -38866054#3 -38866055 -38870008#0 -39534461#0 -39534461#1 -39534461#2 -39534473#0 -39534473#1 -39534473#10 -39534473#11 -39534473#2 -39534473#4 -39534473#5 -39534473#6 -39534473#8 -39671276#0 -39671276#1 -39671276#2 -39671276#3 -39671276#4 -39671276#5 -39671276#6 -39671276#7 -39671276#8 -39671276#9 -42272858#0 -42272858#1 -42272859#0 -42272859#1 -42272860#0 -42272860#1 -42272865 -42272866#0 -42272866#1 -42272867 -42272868 -42272871 -42272872#0 -42272872#1 -42272872#2 -42272873 -42272874 -42272875#0 -42272875#1 -42272881#0 -42272881#1 -42272882#0 -42272882#1 -62149300#0 -62149300#1 -62149300#2 -62184088#0 -62184088#1 -62184088#2 -62184088#3 -62184088#4 -83524150 -88311513#0 -95930658#0 -95930658#1 -95930658#2 -95942742 -99712615 -99713788#0 -99713788#1 -99831261#0 -99831261#1 -99840662#0 -99840662#1 -99840663 -99840664 -99844791 -99848476#0 -99848476#1 -99848476#2 -99848477#0 -99848477#1 -99848479 -99848480#0 -99848480#1 -99858971 -99859060 -99867341 -99934219 -99934221 -99939105#0 -99939105#1 -99939105#2 -99939105#3 -99939574 -99939575#1 -99939575#2 -99939580#0 -99939580#1 -99939889#0 -99939889#1 -99939889#2 -99941364#0 -99941364#1 -99941365 -99988337 -99988339#0 -99988339#1 -99991856#0 -99991856#1 -99991856#2 -99991857 -99991858#0 -99991858#1 -99998085#0 -99998085#1 -99998085#2 -99998088 100002300 100002302 100002303#0 100002303#1 100002303#2 100002305 100002306#0 100002306#1 100002306#2 100059121 100059124 100682917 100857308#0 100857308#1 100857308#3 100857310 100857313 102198810 102620320 102620323#0 102620323#1 112950835#0 112950835#1 112950835#2 112950835#3 112950843 112950864#0 112950864#1 112950864#2 112950865 116908046#0 116908046#1 116908046#2 116908046#3 129306320#0 129306320#1 129306321 132211357 132211358#0 132211358#1 139089927#0 139089927#1 147411519#0 147411519#1 148591929#2 175103484 175103487 183262835 183269826 183271479#0 183271479#1 183271479#2 184107413#0 184107413#1 184107413#2 184107414#0 184107414#1 184107414#2 184108871#0 184108871#1 184108871#3 184108871#4 184108871#5 186087330#0 186087330#2 202517903 202518057 202518058#0 216921509#0 216921509#1 216921510 264453994#1 264453994#2 264453994#3 305580377#0 305580377#1 319564062#0 319564062#1 319564062#2 327593042 38866054#0 38866054#1 38866054#2 38866054#3 38866055 38870007#0 38870007#1 38870007#2 38870007#3 38870008#0 38870008#1 39534461#0 39534461#1 39534461#2 39534466#0 39534466#1 39534466#2 39534469 39534473#0 39534473#1 39534473#10 39534473#11 39534473#2 39534473#4 39534473#5 39534473#6 39534473#8 39671272#0 39671272#1 39671272#2 39671272#3 39671272#4 39671272#5 39671276#0 39671276#1 39671276#2 39671276#3 39671276#4 39671276#5 39671276#6 39671276#7 39671276#8 39671276#9 42272858#0 42272858#1 42272859#0 42272859#1 42272860#0 42272860#1 42272863#0 42272863#1 42272864#0 42272864#1 42272864#2 42272865 42272866#0 42272866#1 42272867 42272868 42272869#0 42272869#1 42272871 42272872#0 42272872#1 42272872#2 42272873 42272874 42272875#0 42272875#1 42272876#0 42272876#1 42272876#2 42272876#3 42272876#4 42272879 42272881#0 42272881#1 42272882#0 42272882#1 42272883#0 42272883#1 62149297#0 62149297#1 62149297#2 62149298 62149300#0 62149300#1 62149300#2 62184088#0 62184088#1 62184088#2 62184088#3 62184088#4 83524150 88311513#0 88311513#1 95802435#0 95802435#1 95930658#0 95930658#1 95930658#2 95942742 95942872 99712615 99713788#0 99713788#1 99831261#0 99831261#1 99840662#0 99840662#1 99840663 99840664 99842217 99842218 99844791 99848472#0 99848472#1 99848472#2 99848476#0 99848476#1 99848476#2 99848477#0 99848477#1 99848479 99848480#0 99848480#1 99858971 99859060 99859061 99859062#0 99859062#1 99862006#0 99862006#1 99862009#0 99862009#1 99862009#2 99867339#0 99867339#1 99867341 99867342 99891706#0 99891706#1 99891706#2 99891707 99934219 99934221 99939105#0 99939105#1 99939105#2 99939105#3 99939574 99939575#2 99939580#0 99939580#1 99939889#0 99939889#1 99939889#2 99941364#0 99941364#1 99941365 99988337 99988339#0 99988339#1 99988340#0 99988340#1 99991856#0 99991856#1 99991856#2 99991857 99991858#0 99991858#1 99998085#0 99998085#1 99998085#2 99998088"/>
    <taz id="102500" edges="-100190575 -112513342#0 -112513342#1 -112513342#2 -112513342#3 -112513346#0 -112513346#1 -112513349 -112513350#0 -140948350#5 -140948368#0 -140948368#1 -140948371 -141055302#0 -141055302#1 -141206290 -148059084 -148061461#1 -151465719 -151520700 -151520701 -151520702 -151520703 -151520704 -151520706#0 -151520706#1 -179974194 -39541443 -39541444 -39602342#3 -39602342#4 -39602343 -39653974#0 -39653974#1 -39653975#0 -39653975#1 -39653976 -39695514#0 -39695518#0 -39695518#2 -39695520#0 -39695520#1 -39695536 -40031087#0 -40031087#1 -40031087#2 -40031088 -40031089 -40031090#0 -40031090#1 -40031091#0 -40031091#1 -40031091#2 -40031091#3 -40031961#1 -40031961#2 -40031961#3 -40031961#5 -40031961#7 -40031961#8 -40031962#0 -40031962#1 -40031962#2 -40031962#3 -40031962#4 -40031967#0 -40031967#1 -40031967#2 -40031969#0 -40031969#1 -40031970 -40102059#0 -40102059#1 -40102059#2 -40102060 -40158821 -40158822 -40158823#0 -40158823#1 -40158824#0 -40158824#1 -40158824#2 -486534714 -49012301#0 -49012301#1 -59126883#0 -59126883#1 -96621460 -96621463#0 -96621463#1 -96621466 100190575 100191556 112513341 112513342#0 112513342#1 112513342#2 112513342#3 112513343 112513346#0 112513346#1 112513348#0 112513348#1 112513349 112513350#0 140948350#0 140948354 140948363 140948368#0 140948368#1 140948371 140948372 140948374 141055298 141055300#0 141055300#1 141055302#0 141055302#1 141055307#0 141055307#1 141055307#2 141055307#3 141055307#4 141055307#5 141055349#0 141055349#1 141055349#3 141055351#0 141055351#1 141055351#2 141055351#3 141055351#4 141055351#5 141055382 141055384 141055385 141055386 141055390#0 141055390#1 141055405 141206290 147268053 148059084 148059085 148061455#0 148061455#1 148061461#1 148326290#0 151465718 151465719 151520700 151520701 151520702 151520703 151520704 151520705 151520706#0 151520706#1 179974194 179974216#0 179974216#1 38870013 39541444 39602339 39602342#0 39602342#4 39602342#5 39602343 39653974#0 39653974#1 39653975#0 39653975#1 39653975#2 39653976 39695514#0 39695515#0 39695515#1 39695517 39695518#1 39695520#0 39695520#1 39695521#0 39695521#3 39695521#4 39695536 40031087#1 40031087#2 40031088 40031089 40031090#0 40031090#1 40031091#0 40031091#1 40031091#2 40031091#3 40031093#0 40031093#1 40031961#1 40031961#2 40031961#3 40031961#5 40031961#7 40031961#8 40031962#1 40031962#2 40031962#3 40031962#4 40031967#1 40031967#2 40031969#0 40031969#1 40031970 40102059#0 40102059#1 40102059#2 40102060 40158815#0 40158815#1 40158815#2 40158815#3 40158816#0 40158816#1 40158818 40158820 40158821 40158822 40158823#0 40158823#1 40158824#0 40158824#1 40158824#2 486534714 49012301#0 49012301#1 59126883#0 59126883#1 59126883#2 96621460 96621462 96621463#0 96621463#1 96621465 96621466 96621468 96695142"/>
    <taz id="102510" edges="-100325715 -112052255#0 -112052255#1 -112052255#2 -112052255#3 -189725743#0 -189725743#1 -189725743#10 -189725743#2 -189725743#3 -189725743#4 -189725743#5 -189725743#6 -189725743#7 -189725743#8 -189725743#9 -217325776#0 -217325776#1 -217325776#2 -252376366 -256218884 -310480554 -312193997 -38004547#0 -38004547#1 -38220055 -38220059 -38335133#0 -38335133#1 -38335133#2 -38335133#3 -38335134#0 -38335134#1 -38335135#0 -38335135#1 -38335135#2 -38335136 -38455423#0 -38455423#1 -38455423#2 -38455425 -38456085#0 -38456085#1 -38456085#3 -38456085#4 -38456085#5 -38456085#6 -38456086#0 -38456086#2 -38456086#3 -38456091#0 -38456091#1 -38615415 -38615417#0 -38615417#1 -38615417#2 -38615417#3 -38615417#4 -38695289 -39032780 -39403332 -41406717 -41406719 -41406722#0 -41406722#1 -41406723#0 -41406723#1 -41406724 -41406727#0 -41406727#1 -41406727#2 -41406728 -41406729 -41406734 -41406735 -42045518 -42045519 -42045521#0 -42045521#1 -42045522#0 -42045522#1 -42045524#0 -42045524#1 -42045525#0 -42045525#1 -43171740 -43171741 -43171742 -441681660#0 -441681660#1 -441681660#2 -441681660#3 -441681660#4 -44504215#0 -44504215#1 -44504220#0 -44504220#1 -44504222 -50406606#1 -50938877#0 -50938877#1 -50938877#2 -50939356 -50940525 -50941125#0 -50941125#1 -50941125#2 -50942098 -50943062#0 -50943062#1 -50943062#2 -50943066 -521544391#0 -59742424#0 -59742424#1 -79816917#0 -79816917#1 -79824198#0 -79824198#1 -98430872 -98430879#1 -98430879#2 -98430891 100325715 112052254 112052255#0 112052255#1 112052255#2 112052255#3 189725743#0 189725743#1 189725743#10 189725743#2 189725743#3 189725743#4 189725743#5 189725743#6 189725743#7 189725743#8 189725743#9 189725744 217325776#0 217325776#1 217325776#2 252376366 256218884 307106751#0 307106751#1 307106751#3 307110423 310480554 312193997 36501246 36501247 37405926#0 37405926#1 37405926#2 38004547#0 38004547#1 38141276#0 38141276#1 38220054 38220055 38220059 38335133#0 38335133#1 38335133#2 38335133#3 38335134#0 38335134#1 38335135#0 38335135#1 38335135#2 38335136 38455419#0 38455419#1 38455419#2 38455421 38455422 38455423#0 38455423#1 38455423#2 38455424#0 38455424#1 38455425 38455427#0 38455427#1 38455427#2 38455427#3 38456085#0 38456085#1 38456085#3 38456085#4 38456085#5 38456085#6 38456086#0 38456086#2 38456086#3 38456088 38456091#0 38456091#1 38615415 38615416 38615417#0 38615417#1 38615417#2 38615417#3 38615417#4 38695288 38695289 38695294 39026015#0 39026015#1 39032780 39403332 39403333 41406717 41406719 41406722#0 41406722#1 41406723#0 41406723#1 41406724 41406727#0 41406727#1 41406727#2 41406728 41406729 41406734 41406735 42045518 42045519 42045521#0 42045521#1 42045522#0 42045522#1 42045524#0 42045524#1 42045525#0 42045525#1 43720945#0 43720945#1 441681660#0 441681660#1 441681660#2 441681660#3 441681660#4 442763134 44504215#0 44504215#1 44504215#2 44504220#0 44504220#1 44504222 497366272 50406597 50406606#1 50938877#0 50938877#1 50938877#2 50939356 50940525 50941125#0 50941125#1 50941125#2 50942098 50943060 50943062#0 50943062#1 50943062#2 50943066 521544390 585220023#0 585220023#1 585220024#0 585220024#1 59742421 59742424#1 78250166 79816914 79816915 79816917#0 79816917#1 79816919 79816921 79816922 79816923 79824198#0 79824198#1 80719247 80719271 80719273 80719292 98430879#2 98430891"/>
    <taz id="105004" edges="-100607307#0 -100607307#1 -100607307#2 -100607307#3 -100607307#4 -100607307#5 -100607686#0 -100607686#1 -108201937 -120811254#1 -131745664 -131745675 -133620565 -133620568#6 -133620601 -133745283#0 -133745283#1 -133745283#2 -133745283#3 -133745284#0 -133745284#1 -133745284#2 -150101395#0 -150101395#1 -150101395#2 -150101398#0 -150101406#0 -150101406#1 -150101406#2 -150101410 -150101417 -150101422 -173496497 -173496508 -173496509#0 -173496509#1 -173496509#2 -173496520#0 -173496520#1 -173496520#2 -173496520#3 -173496520#4 -173496520#5 -173496520#6 -173496520#7 -173496522 -177629358 -188452742 -215440749#0 -215440749#1 -215440749#2 -215440749#3 -215443271 -23101998 -23102124 -23102125#0 -23102125#1 -23102147 -23102162 -23107208#0 -23107208#1 -23107211 -23107214#0 -23107214#1 -251653190#0 -251653190#1 -251653190#2 -251653190#3 -251653190#4 -251653211#0 -297671138#0 -297671138#1 -304240140#0 -304240140#1 -304240140#2 -304240140#3 -304246510#2 -304511051#0 -304511051#1 -304511051#2 -304511063 -304511077 -304511079#0 -304511079#1 -304511087 -304511089 -304511094#0 -304511094#1 -304511096 -304511103 -309844698 -379378957 -379378958 -43692916 -43692917 -437476310#0 -437476310#2 -462430817#0 -462430817#1 -463875651 -59409695#0 -59409695#2 -63224579 -67239394#1 -83469380#0 -83469380#1 -84478393#0 -84478393#1 -84478393#2 -84478735 -84803152 -84803745#0 -84803745#1 -84803745#2 -84803771#0 -84803771#1 -84803885#0 -84803885#1 -84804094 -85515077#0 -85515077#1 100607307#0 100607307#1 100607307#2 100607307#3 100607307#4 100607307#5 100607686#0 100607686#1 108201938 120811254#2 129645990 129645991 131745675 133620529 133620530#1 133620531 133620532 133620555#1 133620555#2 133620555#3 133620555#4 133620556 133620565 133620567 133620575 133620578 133620601 133745283#0 133745283#1 133745283#2 133745283#3 133745284#0 133745284#1 133745284#2 150101395#0 150101395#1 150101395#2 150101410 150101412 150101415#0 150101415#1 150101422 173496483#0 173496483#1 173496483#2 173496483#3 173496483#4 173496483#6 173496487#0 173496487#1 173496497 173496502#0 173496502#1 173496508 173496509#1 173496509#2 173496510 173496520#1 173496520#2 173496520#3 173496520#4 173496520#5 173496520#6 173496520#7 173496522 177630105#0 177630105#1 177630218 177631128 188452742 215440735 215440743 215440748 215440749#0 215440749#1 215440749#2 215440749#3 215447607 215498410 23101988#0 23101998 23102124 23102125#0 23102125#1 23102147 23102162 23107208#0 23107208#1 23107211 23107214#0 23107214#1 251653190#0 251653190#1 251653190#2 251653190#3 251653190#4 251653211#0 251653211#1 297671138#0 297671138#1 297683281 304232400 304232407 304236463 304240140#0 304240140#1 304240140#2 304240140#3 304246509 304511051#0 304511051#1 304511051#2 304511053 304511055 304511063 304511077 304511079#0 304511079#1 304511081 304511087 304511089 304511094#0 304511094#1 304511096 304511103 304511104#0 304511105 309844698 315427120 368686049 379378957 379378958 43692916 43692917 43692918#0 43692918#1 437476310#1 462430817#0 462430817#1 463875651 534436946 534436947 534436948 534436949#0 534436949#1 534436950#0 534436950#1 59409695#0 59409695#2 63224570#0 63224570#1 67239390#3 67239390#4 81633689#1 81633694 83469380#1 83469380#2 84478393#0 84478393#1 84478393#2 84478735 84803152 84803531 84803609 84803745#0 84803745#1 84803745#2 84803771#0 84803771#1 84803885#0 84803885#1 84804006 84804094 84804399#0 84804399#1 85515077#0 85515077#1 85516150 85516157"/>
    <taz id="102522" edges="-100857311#0 -100857311#1 -101493272#0 -101493272#1 -101493272#2 -101493272#3 -123393592 -123393593 -123393595 -123447913#0 -123447913#1 -123502112#0 -123502112#1 -123502112#2 -123502112#3 -123502113#0 -123502113#1 -123502114 -123502115 -123502118#0 -123502118#1 -123502118#2 -123502119 -123502124 -123502125 -123549965#0 -123549965#1 -123549970 -129302652 -129306319#0 -129306319#1 -138951647 -138951648#0 -138951648#1 -138951656#0 -138951656#1 -138951659 -138957159#0 -138957159#1 -138979506#0 -138979506#1 -138979507 -138979509#0 -138979509#1 -138979510 -139261518 -139261519 -139281062 -139281065 -139281067 -139281068 -139281069 -139281070 -139281073 -139297969 -139297970 -139297973 -139350508 -139350510 -139350579 -139374316#0 -139374316#1 -139374319 -139418351 -139418374#0 -139418374#1 -139427037 -139457737#0 -139457737#1 -139457737#2 -139457740 -139457741 -139531869 -139552237#0 -139552237#1 -139552242 -139662133#0 -139662133#1 -139668211 -139668214#0 -139668214#1 -139749205#0 -139749205#1 -139927082 -140062830#0 -140062830#1 -140114552 -140161352 -140235251 -140235252#0 -140235252#1 -140254897 -140254900#0 -140254900#1 -140256873 -140256875 -144212772#0 -144212772#1 -144212772#2 -144212772#3 -144212772#4 -144212772#5 -144212778 -144270002#0 -144270002#1 -144270003#0 -144270003#1 -144270003#2 -144270014 -144270015 -144270016 -144270017 -144270018 -144270019 -144270020#0 -144270020#1 -144270021#0 -144270021#1 -144270021#2 -144270022 -144270023#0 -144270023#1 -144270023#2 -144270023#3 -144270024#0 -144270024#1 -144270028 -144270029 -144270034#0 -144270034#1 -144270034#2 -144270034#3 -144270034#4 -144270035 -144270036 -144270038#1 -144270038#2 -144270039#0 -144270039#1 -144270039#2 -144270039#3 -144270039#4 -144270039#5 -144270041 -144270044#0 -144270044#1 -144270045 -144286688#0 -144286688#1 -144286688#2 -144286691 -144286692 -144286695#0 -144286695#1 -144286695#4 -144286696 -144286700 -144286701 -144286704#0 -144286704#1 -144286704#2 -144286704#3 -144378456#0 -144378456#1 -144378456#2 -144378457 -144378458 -144378459 -144378460 -144378461#0 -144378461#1 -144378466 -144378467 -144378468 -144378469 -144378470#0 -144378470#1 -144378471 -144378473 -144378474 -144378475 -144378476 -144378477 -144378478 -144378479#0 -144378479#1 -144378480 -144378481 -144378482 -144378483 -144378484 -144378485 -144378486 -144378487 -144378488 -144378489 -144378490 -144394433 -144394434 -144640487 -144640488 -144814035#0 -144814035#1 -147463131 -148319536 -154674313#0 -154674313#2 -154674313#3 -154674313#4 -170573264 -170573266 -170573267 -170573268 -173998127#0 -173998127#1 -173998127#2 -173998128 -173998129 -184712760#0 -184712760#1 -184712762#0 -184712762#1 -190020281#0 -190020281#1 -190020281#2 -190020281#3 -24319436#0 -24319436#1 -24319436#2 -252376367 -252376372 -289699754#1 -377144687 -37931088#0 -37931088#1 -37931089 -37931090#0 -37931090#1 -37931090#2 -37931090#3 -37931090#4 -37931090#5 -38611109#2 -38611322#0 -38611322#1 -38615424 -38615428 -38625688#0 -38625688#1 -38625688#2 -38625688#3 -38625688#4 -38625688#5 -38625688#6 -38625688#7 -38625688#8 -38688581#0 -38688581#1 -38688582 -38688584#0 -38688584#1 -38688586#1 -38688586#3 -38688589#1 -38688589#2 -38688589#3 -38688600#0 -38688600#1 -38688600#2 -38688600#3 -38688600#4 -38688600#5 -38688600#6 -38688600#7 -38688600#8 -38688600#9 -38688610#0 -38688610#1 -38688610#2 -38688643#0 -38688643#1 -38688645#0 -38688645#1 -38688645#2 -38688645#3 -38688645#4 -38688647 -38716170#0 -38716170#4 -38716170#5 -38716170#6 -38716171#0 -38716171#1 -38716171#2 -38716172#0 -38716172#1 -38716172#2 -38716173 -38716174#1 -38716174#2 -38716188#0 -38716188#1 -38716188#2 -38716189#0 -38716189#1 -38716190 -38716191#0 -38716191#1 -38716191#2 -38716192#0 -38716192#1 -38716197#0 -38716197#1 -38716197#2 -38716198#1 -38716198#2 -38820151 -38820153#0 -38820153#1 -38820153#2 -38820153#3 -38820157 -38820158 -38820159#0 -38820159#1 -38820160 -38820161#0 -38820161#1 -38820161#2 -38820161#3 -38820161#4 -38820162 -38820166#0 -38820166#1 -38820166#2 -38820166#3 -38820166#4 -38820166#5 -38820166#6 -38820166#7 -38820169 -38820170#0 -38820170#1 -38820173#0 -38820173#1 -38820173#2 -38820173#3 -38820173#4 -38866056#1 -38866057#0 -38866057#1 -38866057#2 -38866057#3 -38866057#4 -38866058#0 -38866058#1 -38866058#2 -38866060#0 -38866060#1 -38877238 -38877239 -38986354#1 -38986355#0 -38986355#1 -38986356 -38986358 -38986359 -38986360#0 -38986360#1 -38986360#2 -38986360#3 -38986373 -38986374 -38986375#0 -38986375#1 -39254371 -39254372#0 -39254372#1 -39254373 -39254374 -39254383#0 -39254383#1 -39254386 -39254387#0 -39254387#1 -39254387#2 -39254388 -39254389 -39254390#0 -39254390#1 -39254390#2 -39254390#3 -39254396 -39254400#0 -39254400#1 -39294751 -39431792 -39431793 -39431799#0 -39431799#1 -39431799#2 -39431799#3 -39431799#4 -39431800 -39431804#0 -39431804#1 -39431804#2 -39431804#3 -39431806#0 -39431806#1 -39431809 -39431810 -39431811 -39431812#0 -39431812#1 -39431812#2 -39431821 -39431824 -39431826 -39431833 -39431834 -39431836 -39431837 -39535198#0 -39535198#3 -39535198#4 -39535201 -39535202#0 -39535203#1 -39535204#1 -39543226#0 -39602790 -39602792#0 -39602792#1 -39602792#2 -39602792#3 -39602792#4 -39602792#5 -39602792#6 -39643215#0 -39670545 -39670547 -39849344#0 -39849344#2 -39906442#0 -39906442#1 -39906442#10 -39906442#12 -39906442#13 -39906442#14 -39906442#15 -39906442#17 -39906442#2 -39906442#3 -39906442#4 -39906442#5 -39906442#6 -39906442#7 -39906442#9 -39906444#0 -39906444#1 -39906444#2 -39906445 -39906448#0 -39906448#1 -39906448#2 -39906448#3 -40158808 -40158810#2 -40698045 -40698046#0 -40698046#1 -40698050#0 -40698050#1 -40698051#0 -40698051#1 -40698053#0 -40698053#1 -40698055 -40698059#0 -40698059#1 -40698059#2 -40698059#3 -40698065#0 -40698065#1 -40698065#2 -40698065#3 -40698069 -40698071 -40698073#0 -40698073#1 -40698074#0 -40698074#1 -40698076#0 -40698076#1 -40698080 -40698114#0 -40698114#1 -40698115 -40707205 -40758163#0 -40758163#1 -40758164 -40758165 -40758169 -40758170 -40758171#0 -40758171#1 -40758172 -40758173#0 -40758173#1 -40758173#2 -40758173#3 -40758173#4 -40758174#0 -40758174#1 -40758174#2 -40758180#0 -40758180#1 -40758180#2 -40758181#0 -40758181#1 -40758182 -40758184 -40758185#0 -40758185#1 -40758185#2 -40758186 -40758187 -40758188 -40758189 -40758191 -40758192 -40758193#0 -40758193#1 -40758193#2 -40758194 -40811602#0 -40811602#1 -40811603#0 -40811603#1 -40811604 -40811605#1 -40811606#0 -40811606#1 -40811606#2 -40811606#3 -40811607 -40811608#0 -40811608#1 -40811609#0 -40811610 -40811612 -40811613#1 -40811613#2 -40811613#3 -40811613#4 -40811613#5 -40811614 -40970618#0 -40970618#1 -40970620#0 -40970620#1 -40970621 -40970622#0 -40970622#1 -40970622#2 -40970624#0 -40970624#1 -40970624#2 -40970634 -40970635#0 -40970635#1 -410366675#0 -410366675#1 -410663140 -42109227#0 -42109227#1 -42109227#2 -42109228#0 -42109228#1 -42109230 -42109231#0 -42109231#1 -42109232 -42109233 -42272853#0 -42272853#1 -42272854#0 -42272856#0 -42272856#1 -44807657#0 -44807657#1 -44807657#2 -481978876 -481980146 -481980150 -49748518 -497505367 -51523156 -51523161 -69715096#0 -69715096#1 -69715096#2 -69715096#3 -69715096#4 -69715098 -69715099#0 -69715099#1 -69715099#2 -69715099#3 -69715101#0 -69715101#1 -69715102 -69715103#0 -69715103#1 -77910721#0 -77910721#1 -79704914#0 -79704914#1 -79704914#2 -79704915#0 -79704915#1 -79704915#2 -79704915#3 -84545029#0 -84545029#1 -84545030#0 -84545030#1 -84545030#2 -84545030#4 -86300227#0 -86300227#1 -86300227#2 -87425852#1 -87425852#2 -87425852#3 -87425852#4 -88311513#1 -88311514#0 -88311514#1 -88311514#2 -88349695 -88359772 -88359802#1 -88359802#2 -88359802#3 -88359802#4 -88359802#5 -88359809 -88359823 -95683164 -95683168#0 -95683168#1 -95683168#2 -95683168#3 -95683168#4 -95683170 -95683178#0 -95683178#1 -95683186#0 -95683186#1 -95683186#2 -95683186#3 -95683188#0 -95683188#1 -95683188#2 -95683188#3 -95683188#4 -95683198#0 -95683198#1 -95683198#2 -95683198#3 -95683198#4 -95683198#6 -95683201 -95683204 -95683214#0 -95683214#1 -95683214#2 -95683219#0 -95683219#1 -95683219#2 -95683219#3 -95683219#4 -95683223#0 -95683223#1 100857311#0 100857311#1 101493272#0 101493272#1 101493272#2 101493272#3 123393592 123393593 123393595 123447913#0 123447913#1 123502111#0 123502111#1 123502112#0 123502112#1 123502112#2 123502112#3 123502113#0 123502113#1 123502114 123502115 123502118#0 123502118#1 123502118#2 123502119 123502120 123502121 123502123 123502124 123502125 123502127#0 123502127#1 123549965#0 123549965#1 123549970 128734468#0 128734468#1 128734469#0 128734469#1 129302652 129306319#0 129306319#1 138951647 138951648#0 138951648#1 138951654#0 138951654#1 138951654#2 138951656#0 138951656#1 138951659 138957159#0 138957159#1 138979506#0 138979506#1 138979507 138979509#0 138979509#1 138979510 139261518 139261519 139261529#0 139261529#1 139261529#2 139281059 139281061#0 139281061#1 139281062 139281065 139281067 139281068 139281069 139281070 139281073 139297969 139297970 139297973 139298000 139298003 139298004 139298007 139350508 139350510 139350579 139374316#0 139374316#1 139374319 139418350#0 139418350#1 139418350#2 139418350#3 139418351 139418353 139418354 139418355 139418357#0 139418357#1 139418357#2 139418359 139418360 139418362 139418371 139418372#0 139418374#0 139418374#1 139418375 139427037 139457737#0 139457737#1 139457737#2 139457740 139457741 139531869 139552237#0 139552237#1 139552242 139662133#0 139662133#1 139668211 139668214#0 139668214#1 139749205#0 139749205#1 139749209#0 139749209#1 139749209#2 139749209#3 139749211#0 139749211#1 139749211#2 139749211#3 139892844 139927082 140062830#0 140062830#1 140114552 140161352 140235251 140235252#0 140235252#1 140254897 140254900#0 140254900#1 140256873 140256875 144212766 144212769#0 144212769#1 144212771 144212772#0 144212772#1 144212772#2 144212772#3 144212772#4 144212772#5 144212778 144212792 144212795 144212798 144212800 144212804 144212808#0 144212808#1 144212809#0 144212809#1 144212809#2 144212809#3 144212809#4 144212829 144212831 144212836 144212837 144212838 144212843#0 144212843#1 144212844 144269981 144269983 144269984#0 144269984#1 144270002#0 144270002#1 144270003#0 144270003#1 144270003#2 144270005 144270006#0 144270006#1 144270014 144270015 144270016 144270017 144270018 144270019 144270020#0 144270020#1 144270021#0 144270021#1 144270021#2 144270022 144270023#0 144270023#1 144270023#2 144270023#3 144270024#0 144270024#1 144270025 144270026#0 144270026#1 144270026#2 144270026#3 144270026#4 144270026#5 144270028 144270029 144270031 144270032#0 144270032#1 144270032#2 144270032#3 144270033#0 144270033#1 144270033#2 144270033#3 144270033#4 144270034#0 144270034#1 144270034#2 144270034#3 144270034#4 144270035 144270036 144270038#1 144270038#2 144270039#0 144270039#1 144270039#2 144270039#3 144270039#4 144270039#5 144270041 144270043 144270044#0 144270044#1 144270045 144270047#0 144270047#1 144270048 144270049 144270050 144270051 144270053#0 144270053#1 144270054 144286688#0 144286688#1 144286688#2 144286691 144286692 144286695#0 144286695#1 144286695#4 144286696 144286700 144286701 144286704#0 144286704#1 144286704#2 144286704#3 144378456#0 144378456#1 144378456#2 144378457 144378458 144378459 144378460 144378461#0 144378461#1 144378466 144378467 144378468 144378469 144378470#0 144378470#1 144378471 144378473 144378474 144378475 144378476 144378477 144378478 144378479#0 144378479#1 144378480 144378481 144378482 144378483 144378484 144378485 144378486 144378487 144378488 144378489 144378490 144394418 144394420#0 144394420#1 144394433 144394434 144394435 144394436 144394437 144394439#0 144394439#1 144640480 144640481#0 144640481#1 144640481#2 144640481#3 144640482 144640483 144640485 144640487 144640488 144640489 144640490 144640491#0 144640491#1 144640492 144640493 144640494 144814005 144814006 144814007 144814008 144814009 144814010 144814011 144814015 144814022 144814023 144814024 144814025 144814026 144814027 144814028 144814030 144814031 144814035#0 144814035#1 145419037 145419038 145419039 145419051 145419054 147463138 147527018#0 147527018#1 147527018#2 147527018#3 154674313#0 154674313#2 154674313#3 154674313#4 170573264 170573266 170573267 170573268 173998127#0 173998127#1 173998127#2 173998128 173998129 184712760#0 184712760#1 184712762#0 184712762#1 190020281#0 190020281#1 190020281#2 190020281#3 24319436#0 24319436#1 24319436#2 252376367 252376372 377144687 37931088#0 37931088#1 37931089 37931090#0 37931090#1 37931090#2 37931090#3 37931090#4 37931090#5 38611109#0 38611322#0 38611322#1 38611322#2 38615424 38615428 38625688#0 38625688#1 38625688#2 38625688#3 38625688#4 38625688#5 38625688#6 38625688#7 38625688#8 38663171#0 38663171#1 38663171#2 38663171#3 38663171#4 38663171#5 38688581#0 38688581#1 38688582 38688584#0 38688584#1 38688585 38688586#1 38688586#3 38688587#1 38688588#0 38688588#1 38688589#1 38688589#2 38688589#3 38688590 38688592 38688594#0 38688594#1 38688595#1 38688596 38688600#0 38688600#1 38688600#2 38688600#3 38688600#4 38688600#5 38688600#6 38688600#7 38688600#8 38688600#9 38688608 38688610#0 38688610#1 38688610#2 38688627#0 38688627#1 38688643#0 38688643#1 38688645#0 38688645#1 38688645#2 38688645#3 38688645#4 38688647 38688648 38716170#0 38716170#1 38716170#5 38716170#6 38716171#0 38716171#1 38716171#2 38716172#0 38716172#1 38716172#2 38716173 38716174#1 38716174#2 38716183 38716184 38716185 38716186#0 38716186#1 38716187 38716188#0 38716188#1 38716188#2 38716189#0 38716189#1 38716190 38716191#0 38716191#1 38716191#2 38716192#0 38716192#1 38716197#0 38716197#1 38716197#2 38716198#1 38716198#2 38820151 38820152#0 38820152#1 38820153#0 38820153#1 38820153#2 38820153#3 38820154 38820155 38820156 38820157 38820158 38820159#0 38820159#1 38820160 38820161#0 38820161#1 38820161#2 38820161#3 38820161#4 38820162 38820163 38820165 38820166#0 38820166#1 38820166#2 38820166#3 38820166#4 38820166#5 38820166#6 38820166#7 38820167#0 38820167#1 38820168#0 38820168#1 38820168#2 38820169 38820170#0 38820170#1 38820173#0 38820173#1 38820173#2 38820173#3 38820173#4 38820175 38820176 38820177 38820178 38838927 38838928#0 38838928#2 38838928#3 38838928#4 38838945 38866056#1 38866057#0 38866057#1 38866057#2 38866057#3 38866057#4 38866058#0 38866058#1 38866058#2 38866060#0 38866060#1 38877238 38877239 38877245#0 38877245#1 38877245#2 38877245#3 38877245#4 38986354#1 38986355#0 38986355#1 38986356 38986357 38986358 38986359 38986360#0 38986360#1 38986360#2 38986360#3 38986361#0 38986361#1 38986362#0 38986362#1 38986363#0 38986363#1 38986364 38986365#0 38986365#1 38986365#3 38986365#4 38986366 38986367#0 38986367#1 38986367#2 38986367#3 38986370 38986371 38986373 38986374 38986375#0 38986375#1 39254371 39254372#0 39254372#1 39254373 39254374 39254383#0 39254383#1 39254386 39254387#0 39254387#1 39254387#2 39254388 39254389 39254390#0 39254390#1 39254390#2 39254390#3 39254396 39254399#0 39254399#1 39254400#0 39254400#1 39294750#0 39294750#1 39294751 39294752#1 39294752#2 39294752#3 39294752#4 39431790 39431792 39431793 39431794 39431796#0 39431796#1 39431796#2 39431797 39431798#0 39431798#1 39431798#2 39431798#3 39431798#4 39431799#0 39431799#1 39431799#2 39431799#3 39431799#4 39431800 39431802#0 39431802#1 39431802#2 39431802#3 39431804#0 39431804#1 39431804#2 39431804#3 39431806#0 39431806#1 39431809 39431810 39431811 39431812#0 39431812#1 39431812#2 39431815 39431821 39431823 39431824 39431825 39431826 39431829 39431833 39431834 39431836 39431837 39523931 39535198#0 39535198#1 39535198#4 39535200#0 39535200#1 39535201 39535202#0 39535202#1 39535205 39543226#1 39543227 39543229 39602790 39602791 39602792#0 39602792#1 39602792#2 39602792#3 39602792#4 39602792#5 39602792#6 39643215#1 396705